filters/d_IEEE_39_bus.m
% File generated by PSAT from PSS/E data file.
% ------------------------------------------------------------------------------
% Author:   Federico Milano
% E-mail:   fmilano@thunderbox.uwaterloo.ca
% Web-site: http://thunderbox.uwaterloo.ca/~fmilano
% Coauthor: Juan Carlos Morataya
% E-mail:   jc.morataya@ieee.org
% ------------------------------------------------------------------------------
% NEW ENGLAND TEST SYSTEM, 39 BUSES, 9 GENERATORS
% Created by Pablo Ledesma pablole@ing.uc3m.es
% ------------------------------------------------------------------------------

Bus.con = [ ...
   1     1.00 -8.36850  0.01925  1  1;
   2     1.00 -5.77190  0.01925  1  1;
   3     1.00 -8.60810  0.01925  1  1;
   4     1.00 -9.51220  0.01925  1  1;
   5     1.00 -8.43240  0.01925  1  1;
   6     1.00 -7.73390  0.01925  1  1;
   7     1.00 -9.90710  0.01925  1  1;
   8     1.00 -10.40280  0.01925  1  1;
   9     1.00 -10.16530  0.01925  1  1;
  10     1.00 -5.30600  0.01925  1  1;
  11     1.00 -6.13200  0.01925  1  1;
  12     1.00 -6.11750  0.01925  1  1;
  13     1.00 -5.99870  0.01925  1  1;
  14     1.00 -7.60970  0.01925  1  1;
  15     1.00 -7.84420  0.01925  1  1;
  16     1.00 -6.37390  0.01925  1  1;
  17     1.00 -7.42130  0.01925  1  1;
  18     1.00 -8.29850  0.01925  1  1;
  19     1.00 -1.22110  0.01925  1  1;
  20     1.00 -2.20970  0.01925  1  0;
  21     1.00 -4.07950  0.01925  1  1;
  22     1.00  0.25150  0.01925  1  1;
  23     1.00 -0.01770  0.01925  1  1;
  24     1.00 -6.29430  0.01925  1  1;
  25     1.00 -4.37900  0.01925  1  1;
  26     1.00 -5.59390  0.01925  1  1;
  27     1.00 -7.58070  0.01925  1  1;
  28     1.00 -2.09140  0.01925  1  1;
  29     1.00  0.66200  0.01925  1  1;
  30     1.00 -3.35990  0.01925  1  1;
  31     1.00  0.00000  0.01925  1  0;
  32     1.00  2.65800  0.01925  1  0;
  33     1.00  3.99540  0.01925  1  0;
  34     1.00  2.98130  0.01925  1  1;
  35     1.00  5.20810  0.01925  1  1;
  36     1.00  7.82110  0.01925  1  1;
  37     1.00  2.39330  0.01925  1  1;
  38     1.00  7.71560  0.01925  1  1;
  39     1.00 -9.93540  0.01925  1  1;
   ];

SW.con = [ ...
  31    0.00   0.00  0.00000 0.00  0.00000  0.00000 1.1 0.9  0.00000 1];

PV.con = [ ...
   4  100.00   1.00  0.01000  0.00000  1.00000  0.00000 1.1 0.9 1  1;
   5  100.00   1.00  0.01000  0.00000  2.00000  0.00000 1.1 0.9 1  1;
   ];

PQ.con = [ ...
   3  100.00     1.00  3.22000  0.02400 1.1 0.9 1  1;
   4  100.00     1.00  5.00000  1.84000 1.1 0.9 1  1;
   7  100.00     1.00  2.33800  0.84000 1.1 0.9 1  1;
   8  100.00     1.00  5.22000  1.76000 1.1 0.9 1  1;
  12  100.00     1.00  0.07500  0.88000 1.1 0.9 1  1;
  15  100.00     1.00  3.20000  1.53000 1.1 0.9 1  1;
  16  100.00     1.00  3.29400  0.32300 1.1 0.9 1  1;
  18  100.00     1.00  1.58000  0.30000 1.1 0.9 1  1;
  20  100.00     1.00  6.28000  1.03000 1.1 0.9 1  1;
  21  100.00     1.00  2.74000  1.15000 1.1 0.9 1  1;
  23  100.00     1.00  2.74500  0.84600 1.1 0.9 1  1;
  24  100.00     1.00  3.08600 -0.92200 1.1 0.9 1  1;
  25  100.00     1.00  2.24000  0.47200 1.1 0.9 1  1;
  26  100.00     1.00  1.39000  0.17000 1.1 0.9 1  1;
  27  100.00     1.00  2.81000  0.75500 1.1 0.9 1  1;
  28  100.00     1.00  2.06000  0.27600 1.1 0.9 1  1;
  29  100.00     1.00  2.83500  0.26900 1.1 0.9 1  1;
  31  100.00     1.00  0.09200  0.04600 1.1 0.9 1  1;
  39  100.00     1.00 11.04000  2.50000 1.1 0.9 1  1;
   ];

Shunt.con = [ ...
  30  100.00     1.00 60  0.00000  0.05000  1;
  31  100.00     1.00 60  0.00000  0.05000  1;
  32  100.00     1.00 60  0.00000  0.09000  1;
  33  100.00     1.00 60  0.00000  0.07000  1;
  34  100.00     1.00 60  0.00000  0.08900  1;
  35  100.00     1.00 60  0.00000  0.08000  1;
  36  100.00     1.00 60  0.00000  0.08800  1;
  37  100.00     1.00 60  0.00000  0.09000  1;
  38  100.00     1.00 60  0.00000  0.09000  1;
  39  100.00     1.00 60  0.00000  0.08000  1;
  12  100.00     1.00 60  0.00000  0.01000  1;
   ];

Line.con = [ ...
   1    2     1.00     1.00 60 0  0.00 27.00000 39.00000  1.00000  1.00000  0.00000     0.001    0.015    0.257  0;
   3    4     1.00     1.00 60 0  0.00 225.00000 18.00000  1.00000  1.00000  0.00000     0.001    0.013    0.134  0;
   5    6     1.00     1.00 60 0  0.00 735.00000  8.00000  1.00000  1.00000  0.00000     0.001    0.009    0.113  0;
   7    8     1.00     1.00 60 0  0.00 36504.00000  9.00000  1.00000  1.00000  0.00000     0.001    0.025    1.200  0;
  10   13     1.00     1.00 60 0  0.00 8775.00000 14.00000  1.00000  1.00000  0.00000     0.002    0.022    0.366  0;
  16   17     1.00     1.00 60 0  0.00 21168.00000 19.00000  1.00000  1.00000  0.00000     0.001    0.014    0.255  0;
  17   18     1.00     1.00 60 0  0.00 24684.00000 27.00000  1.00000  1.00000  0.00000     0.001    0.014    0.257  0;
  23   24     1.00     1.00 60 0  0.00 54675.00000 26.00000  1.00000  1.00000  0.00000     0.001    0.015    0.240  0;
  26   29     1.00     1.00 60 0  0.00 84.00000 29.00000  1.00000  1.00000  0.00000     0.000    0.000    0.000  0;
   ];

Areas.con = [ ...
   1     1 100.00  0.00000  0.00000 0;
   1     1 100.00  0.00000  0.00000 0;
  31     6 100.00  0.00000  0.00000 0;
   ];

Regions.con = [ ...
   1 0 100.00 0 0 0;
   1 0 100.00 0 0 0;
  20 0 100.00 0 0 0;
   ];

Bus.names = { ...
  '1'; '2'; '3'; '4'; '5';
  '6'; '7'; '8'; '9'; '10';
  '11'; '12'; '13'; '14'; '15';
  '16'; '17'; '18'; '19'; '20';
  '21'; '22'; '23'; '24'; '25';
  '26'; '27'; '28'; '29'; '30';
  '31'; '32'; '33'; '34'; '35';
  '36'; '37'; '38'; '39'};

Areas.names = { ...
  '0.00'; ''; '1'};

Regions.names = { ...
  '1.000'; '1.000'; '34'};

